 &time_control
 run_days                            = 0,
 run_hours                           = 3
 run_minutes                         = 0,
 run_seconds                         = 0,
 start_year                          = 2018,2018,
 start_month                         = 05,05,
 start_day                           = 15,15,
 start_hour                          = 12,12,
 start_minute                        = 00,   00,   00,  00,  00,  00,
 start_second                        = 00,   00,   00,  00,  00,  00,
 end_year                            = 2018,2018,
 end_month                           = 05,05,
 end_day                             = 15,15,
 end_hour                            = 15,15,
 end_minute                          = 00,   00,    5,   5,   5,   5,
 end_second                          = 00,   00,   00,  00,  00,  00,
 interval_seconds                    = 10800,
 input_from_file                     = .true., .true., .true.,
 history_interval                    = 60,   60,   60,
 frames_per_outfile                  = 1,     1,    1,
 restart                             = .false.,
 restart_interval                    = 25000,
 io_form_history                     = 2
 io_form_restart                     = 2
 io_form_input                       = 2
 io_form_boundary                    = 2
 debug_level                         = 300
 /

 &domains
 time_step                           = 75,
 time_step_fract_num                 = 0,
 time_step_fract_den                 = 1,
 max_dom                             = 2,
 e_we                                = 420,1151,
 e_sn                                = 320,961,
 num_metgrid_levels                  = 32,
 num_metgrid_soil_levels             = 4,
 dx                                  = 15000.0000,3000.0000,
 dy                                  = 15000.0000,3000.0000,
 grid_id                             = 1,     2,     3,    4,    5,    6,
 parent_id                           = 0,     1,     2,    2,    3,    2,
 i_parent_start                      = 1,155,
 j_parent_start                      = 1,60,
 parent_grid_ratio                   = 1,5,
 parent_time_step_ratio              = 1,4
 feedback                            = 1,
 smooth_option                       = 1
 interp_type                         = 1
 hypsometric_opt                     = 2
 lowest_lev_from_sfc                 = .false.
 lagrange_order                      = 1
 force_sfc_in_vinterp                = 1
 zap_close_levels                    = 500
 smooth_cg_topo                      = .true.
 sfcp_to_sfcp                        = .false.
 adjust_heights                      = .false.

 ! eta_levels                          = 1.0000, 0.9980, 0.9940, 0.9870, 0.9750, 0.9590, 
 !                                       0.9390, 0.9160, 0.8920, 0.8650, 0.8350, 0.8020, 
 !                                       0.7660, 0.7270, 0.6850, 0.6400, 0.5920, 0.5420, 
 !                                       0.4970, 0.4565, 0.4205, 0.3877, 0.3582, 0.3317, 
 !                                       0.3078, 0.2863, 0.2670, 0.2496, 0.2329, 0.2188, 
 !                                       0.2047, 0.1906, 0.1765, 0.1624, 0.1483, 0.1342, 
 !                                       0.1201, 0.1060, 0.0919, 0.0778, 0.0657, 0.0568, 
 !                                       0.0486, 0.0409, 0.0337, 0.0271, 0.0209, 0.0151, 
 !                                       0.0097, 0.0047, 0.0000,

 ! p_top_requested                     = 6500
 ! e_vert = 35, 35, 35, 35, 35, 35
 ! eta_levels                          = 1.00000 , 0.99258 , 0.98275 , 0.96996 , 0.95372 ,
 !                                       0.93357 , 0.90913 , 0.87957 , 0.84531 , 0.80683 ,
 !                                       0.76467 , 0.71940 , 0.67163 , 0.62198 , 0.57108 ,
 !                                       0.51956 , 0.46803 , 0.42030 , 0.37613 , 0.33532 ,
 !                                       0.29764 , 0.26290 , 0.23092 , 0.20152 , 0.17452 ,
 !                                       0.14978 , 0.12714 , 0.10646 , 0.08761 , 0.07045 ,
 !                                       0.05466 , 0.03981 , 0.02580 , 0.01258 , 0.00000

 !p_top_requested                     = 5000
 !e_vert = 40, 40, 40, 40, 40, 40
 !eta_levels                            = 1.00000 , 0.99307 , 0.98348 , 0.97105 , 0.95551 ,
 !                                        0.93651 , 0.91363 , 0.88644 , 0.85460 , 0.81855 ,
 !                                        0.77877 , 0.73579 , 0.69016 , 0.64246 , 0.59329 ,
 !                                        0.54573 , 0.50104 , 0.45908 , 0.41972 , 0.38281 ,
 !                                        0.34824 , 0.31589 , 0.28563 , 0.25735 , 0.23096 ,
 !                                        0.20635 , 0.18343 , 0.16209 , 0.14226 , 0.12384 ,
 !                                        0.10677 , 0.09095 , 0.07633 , 0.06282 , 0.05036 ,
 !                                        0.03889 , 0.02835 , 0.01868 , 0.00983 , 0.00000

 p_top_requested                     = 1500
 e_vert = 51, 51, 51, 51, 51, 51
 eta_levels                          = 1.0000, 0.9980, 0.9940, 0.9870, 0.9750, 0.9590,
				       0.9390, 0.9160, 0.8920, 0.8650, 0.8350, 0.8020, 0.7660,
				       0.7270, 0.6850, 0.6400, 0.5920, 0.5420, 0.4970, 0.4565,
				       0.4205, 0.3877, 0.3582, 0.3317, 0.3078, 0.2863, 0.2670,
				       0.2496, 0.2329, 0.2188, 0.2047, 0.1906, 0.1765, 0.1624,
				       0.1483, 0.1342, 0.1201, 0.1060, 0.0919, 0.0778, 0.0657,
				       0.0568, 0.0486, 0.0409, 0.0337, 0.0271, 0.0209, 0.0151,
				       0.0097, 0.0047, 0.0000,
 /

 &physics
 mp_physics                          = 8,8, 
 mp_tend_lim                         = 0.07,
 do_radar_ref                        = 1,
 ra_lw_physics                       = 4,     4,     4,
 ra_sw_physics                       = 4,     4,     4,
 radt                                = 15,    15,    15,
 swint_opt                           = 1,
 CO2TF                               = 1,
 sf_sfclay_physics                   = 5,     5,     5,
 sf_surface_physics                  = 3,     3,     3,
 sf_lake_physics                     = 0,     0,     0
 bl_pbl_physics                      = 5,     5,     5,
 bldt                                = 0,     0,     0,
 bl_mynn_tkebudget                   = 0,
 bl_mynn_tkeadvect                   = .false.,
 bl_mynn_cloudpdf                    = 2,
 bl_mynn_edmf                        = 1,
 bl_mynn_edmf_mom                    = 0,
 bl_mynn_edmf_tke                    = 0,
 bl_mynn_mixlength                   = 2,
 grav_settling                       = 0,   0,
 scalar_pblmix                       = 1,   1,
 cu_physics                          = 16, 0,
 cudt                                = 0, 0,
 isfflx                              = 1,
 ifsnow                              = 1,
 icloud                              = 1,
 icloud_bl                           = 1,
 surface_input_source                = 1,
 num_soil_layers                     = 9,
 sf_urban_physics                    = 0,0,
 mp_zero_out                         = 2,
 mp_zero_out_thresh                  = 1.e-12,
 use_aero_icbc                       = .true.
 use_rap_aero_icbc                   = .true.
 maxiens                             = 1,
 maxens                              = 3,
 maxens2                             = 3,
 maxens3                             = 16,
 ensdim                              = 144,
 usemonalb                           = .true.,
 rdlai2d                             = .true.,
 num_land_cat                        = 20,
 mosaic_lu                           = 1
 mosaic_soil                         = 1
 fractional_seaice                   = 0,
 seaice_threshold                    = 271.4
 aer_opt                             = 3,
 lightning_option                    = 0,    1 
 lightning_dt                        = 0,    75,
 /

 &dynamics
 w_damping                           = 1,
 diff_opt                            = 2,    2,
 km_opt                              = 4,    4,
 km_opt_dfi                          = 1,    1,
 diff_6th_opt                        = 2,    2,
 diff_6th_factor                     = 0.12, 0.25,  ! CSS HRRRE single 3-km domain uses 0.25
 damp_opt                            = 3,
 zdamp                               = 5000.,  5000.,  5000.,
 dampcoef                            = 0.2,    0.2,    0.2
 khdif                               = 0,      0,      0,
 kvdif                               = 0,      0,      0,
 SMDIV                               = 0.1,    0.1,    0.1,
 EMDIV                               = 0.01,   0.01,   0.01,
 EPSSM                               = 0.1,    0.1,    0.1  ! CSS HRRRE single 3-km used to use 0.3...back 0.1 with the nest
 non_hydrostatic                     = .true., .true., .true.,
 moist_adv_opt                       = 1, 1,
 moist_adv_dfi_opt                   = 0,      0,     0,
 scalar_adv_opt                      = 1, 1,
 TIME_STEP_SOUND                     = 4,      4,      4,
 H_MOM_ADV_ORDER                     = 5,      5,      5,
 V_MOM_ADV_ORDER                     = 5,      5,      5,
 H_SCA_ADV_ORDER                     = 5,      5,      5,
 V_SCA_ADV_ORDER                     = 5,      5,      5,
 gwd_opt                             = 3,
 /

 &bdy_control
 spec_bdy_width                      = 5,
 spec_zone                           = 1,
 relax_zone                          = 4,
 specified                           = .true., .false.,
 nested                              = .false.,.true.,
 /

 &namelist_quilt
 nio_tasks_per_group = 9,
 nio_groups = 4,
 /
 nio_tasks_per_group = 8,
 nio_groups = 4,
 /
